OPT_V9/My_campus_w_initial_sub_3_active_25_03_11_44/powerflow_results_t17.txt
Pandapower Network Debug Info
==================================================

BUS:
       vm_pu  va_degree      p_mw    q_mvar
0   1.000557   0.070068 -0.001329 -0.001345
1   1.000433   0.137531 -0.001103  0.000041
2   0.999277   0.194079  0.000265  0.001298
3   0.999967   0.105201  0.000105  0.001000
4   0.995522   0.238846  0.000612  0.003297
5   0.999047   0.058797  0.000883  0.002381
6   1.000515   0.039427 -0.000861 -0.001060
7   1.000406  -0.001791 -0.000465 -0.000428
8   0.999418   0.041266 -0.000999  0.000510
9   0.999927   0.000513  0.005705  0.006130
10  0.999916   0.000540  0.009973  0.007018
11  0.999908   0.000600  0.008967  0.009133
12  0.999862   0.000705  0.008333  0.003984
13  0.999847   0.000788  0.008520  0.007306
14  0.999837   0.000799  0.012466  0.010103
15  0.999959   0.000377  0.000000  0.000000
16  0.999959   0.000378  0.000000  0.000000
17  0.999866   0.000755  0.000000  0.000000
18  0.999866   0.000758  0.000000  0.000000
19  1.000000   0.000000 -0.022612 -0.028282
20  1.000000   0.000004  0.000000  0.000000
21  1.000000   0.000000 -0.028533 -0.031111
22  1.000000   0.000004  0.000000  0.000000
--------------------------------------------------

LINE:
    p_from_mw  q_from_mvar   p_to_mw  q_to_mvar         pl_mw       ql_mvar  i_from_ka   i_to_ka      i_ka  vm_from_pu  va_from_degree  vm_to_pu  va_to_degree  loading_percent
0    0.022602     0.024282 -0.022601  -0.024281  1.076382e-06  8.392728e-07   0.001277  0.001277  0.001277    1.000000        0.000004  0.999959      0.000377         0.555142
1    0.028523     0.027111 -0.028519  -0.027108  4.165537e-06  3.247938e-06   0.001515  0.001515  0.001515    1.000000        0.000004  0.999866      0.000755         0.658553
2    0.024647     0.022282 -0.024646  -0.022281  8.537337e-07  6.656702e-07   0.001279  0.001279  0.001279    0.999959        0.000377  0.999927      0.000513         0.556048
3    0.008333     0.003984 -0.008333  -0.003984  2.951138e-08  2.301051e-08   0.000356  0.000356  0.000356    0.999866        0.000755  0.999862      0.000705         0.154593
4    0.020987     0.017410 -0.020986  -0.017409  4.066670e-07  3.170850e-07   0.001050  0.001050  0.001050    0.999866        0.000755  0.999847      0.000788         0.456382
5   -0.002056     0.000999  0.002058  -0.000997  2.443759e-06  1.905439e-06   0.003299  0.003299  0.003299    0.999959        0.000378  1.000557      0.070068         1.434457
6    0.000025     0.001324 -0.000023  -0.001323  1.360008e-06  1.060421e-06   0.001911  0.001911  0.001911    0.999866        0.000758  0.999047      0.058797         0.830888
7   -0.000465    -0.000428  0.000465   0.000428  2.697730e-07  2.103464e-07   0.000912  0.000912  0.000912    0.999866        0.000758  1.000406     -0.001791         0.396555
8   -0.000371     0.003820  0.000374  -0.003818  2.532948e-06  1.974981e-06   0.005540  0.005540  0.005540    0.999866        0.000758  0.999418      0.041266         2.408681
9   -0.018941    -0.016152  0.018941   0.016152  2.143162e-07  1.671059e-07   0.000958  0.000958  0.000958    0.999916        0.000540  0.999927      0.000513         0.416602
10  -0.008967    -0.009133  0.008967   0.009133  8.013987e-08  6.248638e-08   0.000493  0.000493  0.000493    0.999908        0.000600  0.999916      0.000540         0.214220
11  -0.012466    -0.010103  0.012466   0.010103  1.259655e-07  9.821735e-08   0.000618  0.000618  0.000618    0.999837        0.000799  0.999847      0.000788         0.268573
12   0.000836    -0.001340 -0.000835   0.001341  1.474974e-06  1.150062e-06   0.002279  0.002279  0.002279    1.000433        0.137531  1.000557      0.070068         0.990879
13  -0.000105    -0.001000  0.000105   0.001001  6.755938e-07  5.267716e-07   0.001452  0.001452  0.001452    0.999967        0.105201  1.000557      0.070068         0.631261
14  -0.000265    -0.001298  0.000267   0.001299  1.589068e-06  1.239022e-06   0.001913  0.001913  0.001913    0.999277        0.194079  1.000433      0.137531         0.831756
15   0.000626     0.003308 -0.000612  -0.003297  1.380509e-05  1.076406e-05   0.004862  0.004862  0.004862    0.999418        0.041266  0.995522      0.238846         2.113829
16   0.000861     0.001060 -0.000860  -0.001058  1.621742e-06  1.264499e-06   0.001970  0.001970  0.001970    1.000515        0.039427  0.999047      0.058797         0.856501
--------------------------------------------------

TRAFO:
    p_hv_mw  q_hv_mvar   p_lv_mw  q_lv_mvar    pl_mw  ql_mvar   i_hv_ka   i_lv_ka  vm_hv_pu  va_hv_degree  vm_lv_pu  va_lv_degree  loading_percent
0 -0.002046   0.001999  0.002056  -0.000999  0.00001    0.001  0.000110  0.003299  0.999959      0.000377  0.999959      0.000378         0.028603
1 -0.000801   0.005715  0.000811  -0.004715  0.00001    0.001  0.000222  0.006907  0.999866      0.000755  0.999866      0.000758         0.057715
2  0.022612   0.028282 -0.022602  -0.024282  0.00001    0.004  0.000299  0.001277  1.000000      0.000000  1.000000      0.000004         0.090525
3  0.028533   0.031111 -0.028523  -0.027111  0.00001    0.004  0.000348  0.001515  1.000000      0.000000  1.000000      0.000004         0.105536
--------------------------------------------------
